
#======================================================================
# CRYSTAL DATA
#----------------------------------------------------------------------
data_VESTA_phase_1

_chemical_name_common                  'C Cu N S'
_cell_length_a                         10.994000
_cell_length_b                         7.224000
_cell_length_c                         6.662000
_cell_angle_alpha                      90.000000
_cell_angle_beta                       90.000000
_cell_angle_gamma                      90.000000
_cell_volume                           529.100444
_space_group_name_H-M_alt              'P b c a'
_space_group_IT_number                 61

loop_
_space_group_symop_operation_xyz
   'x, y, z'
   '-x, -y, -z'
   '-x+1/2, -y, z+1/2'
   'x+1/2, y, -z+1/2'
   '-x, y+1/2, -z+1/2'
   'x, -y+1/2, z+1/2'
   'x+1/2, -y+1/2, -z'
   '-x+1/2, y+1/2, z'

loop_
   _atom_site_label
   _atom_site_occupancy
   _atom_site_fract_x
   _atom_site_fract_y
   _atom_site_fract_z
   _atom_site_adp_type
   _atom_site_U_iso_or_equiv
   _atom_site_type_symbol
   C1         1.0     0.924530     0.294290     0.139200    Uiso  ? C
   N1         1.0     0.016560     0.232100     0.117600    Uiso  ? N
   S1         1.0     0.783570     0.383900     0.174070    Uiso  ? S
   Cu1        1.0     0.184280     0.156400     0.135980    Uiso  ? Cu
