
#======================================================================
# CRYSTAL DATA
#----------------------------------------------------------------------
data_VESTA_phase_1

_chemical_name_common                  'Ca2 Sb'
_cell_length_a                         4.690000
_cell_length_b                         4.690000
_cell_length_c                         16.389999
_cell_angle_alpha                      90.000000
_cell_angle_beta                       90.000000
_cell_angle_gamma                      90.000000
_cell_volume                           360.516074
_space_group_name_H-M_alt              'I 4 m m'
_space_group_IT_number                 107

loop_
_space_group_symop_operation_xyz
   'x, y, z'
   '-x, -y, z'
   '-y, x, z'
   'y, -x, z'
   'x, -y, z'
   '-x, y, z'
   '-y, -x, z'
   'y, x, z'
   'x+1/2, y+1/2, z+1/2'
   '-x+1/2, -y+1/2, z+1/2'
   '-y+1/2, x+1/2, z+1/2'
   'y+1/2, -x+1/2, z+1/2'
   'x+1/2, -y+1/2, z+1/2'
   '-x+1/2, y+1/2, z+1/2'
   '-y+1/2, -x+1/2, z+1/2'
   'y+1/2, x+1/2, z+1/2'

loop_
   _atom_site_label
   _atom_site_occupancy
   _atom_site_fract_x
   _atom_site_fract_y
   _atom_site_fract_z
   _atom_site_adp_type
   _atom_site_U_iso_or_equiv
   _atom_site_type_symbol
   Ca1        1.0     0.000000     0.000000     0.323800    Uiso  ? Ca
   Ca2        1.0     0.000000     0.000000     0.658000    Uiso  ? Ca
   Ca3        1.0     0.000000     0.500000     0.000000    Uiso  ? Ca
   Sb1        1.0     0.000000     0.000000     0.132200    Uiso  ? Sb
   Sb2        1.0     0.000000     0.000000     0.854900    Uiso  ? Sb
