
#======================================================================
# CRYSTAL DATA
#----------------------------------------------------------------------
data_VESTA_phase_1

_chemical_name_common                  'Ce K S2'
_cell_length_a                         4.228000
_cell_length_b                         4.228000
_cell_length_c                         21.799999
_cell_angle_alpha                      90.000000
_cell_angle_beta                       90.000000
_cell_angle_gamma                      120.000000
_cell_volume                           337.487041
_space_group_name_H-M_alt              'R -3 m'
_space_group_IT_number                 166

loop_
_space_group_symop_operation_xyz
   'x, y, z'
   '-x, -y, -z'
   '-y, x-y, z'
   'y, -x+y, -z'
   '-x+y, -x, z'
   'x-y, x, -z'
   'y, x, -z'
   '-y, -x, z'
   'x-y, -y, -z'
   '-x+y, y, z'
   '-x, -x+y, -z'
   'x, x-y, z'
   'x+2/3, y+1/3, z+1/3'
   '-x+2/3, -y+1/3, -z+1/3'
   '-y+2/3, x-y+1/3, z+1/3'
   'y+2/3, -x+y+1/3, -z+1/3'
   '-x+y+2/3, -x+1/3, z+1/3'
   'x-y+2/3, x+1/3, -z+1/3'
   'y+2/3, x+1/3, -z+1/3'
   '-y+2/3, -x+1/3, z+1/3'
   'x-y+2/3, -y+1/3, -z+1/3'
   '-x+y+2/3, y+1/3, z+1/3'
   '-x+2/3, -x+y+1/3, -z+1/3'
   'x+2/3, x-y+1/3, z+1/3'
   'x+1/3, y+2/3, z+2/3'
   '-x+1/3, -y+2/3, -z+2/3'
   '-y+1/3, x-y+2/3, z+2/3'
   'y+1/3, -x+y+2/3, -z+2/3'
   '-x+y+1/3, -x+2/3, z+2/3'
   'x-y+1/3, x+2/3, -z+2/3'
   'y+1/3, x+2/3, -z+2/3'
   '-y+1/3, -x+2/3, z+2/3'
   'x-y+1/3, -y+2/3, -z+2/3'
   '-x+y+1/3, y+2/3, z+2/3'
   '-x+1/3, -x+y+2/3, -z+2/3'
   'x+1/3, x-y+2/3, z+2/3'

loop_
   _atom_site_label
   _atom_site_occupancy
   _atom_site_fract_x
   _atom_site_fract_y
   _atom_site_fract_z
   _atom_site_adp_type
   _atom_site_U_iso_or_equiv
   _atom_site_type_symbol
   S1         1.0     0.000000     0.000000     0.263460    Uiso  ? S
   K1         1.0     0.000000     0.000000     0.500000    Uiso  ? K
   Ce1        1.0     0.000000     0.000000     0.000000    Uiso  ? Ce
